[TITLE]
;;Project Title/Notes

[OPTIONS]
;;Option             Value
FLOW_UNITS           LPS
INFILTRATION         HORTON
FLOW_ROUTING         DYNWAVE
LINK_OFFSETS         DEPTH
MIN_SLOPE            0
ALLOW_PONDING        NO
SKIP_STEADY_STATE    NO

START_DATE           09/16/2020
START_TIME           00:00:00
REPORT_START_DATE    09/16/2020
REPORT_START_TIME    00:00:00
END_DATE             09/16/2020
END_TIME             23:59:00
SWEEP_START          01/01
SWEEP_END            12/31
DRY_DAYS             0
REPORT_STEP          00:00:01
WET_STEP             00:05:00
DRY_STEP             01:00:00
ROUTING_STEP         0:00:01 
RULE_STEP            00:00:00

INERTIAL_DAMPING     PARTIAL
NORMAL_FLOW_LIMITED  BOTH
FORCE_MAIN_EQUATION  H-W
VARIABLE_STEP        0.75
LENGTHENING_STEP     0
MIN_SURFAREA         1.167
MAX_TRIALS           8
HEAD_TOLERANCE       0.0015
SYS_FLOW_TOL         5
LAT_FLOW_TOL         5
MINIMUM_STEP         0.5
THREADS              1

[EVAPORATION]
;;Data Source    Parameters
;;-------------- ----------------
CONSTANT         0.0
DRY_ONLY         NO

[JUNCTIONS]
;;Name           Elevation  MaxDepth   InitDepth  SurDepth   Aponded   
;;-------------- ---------- ---------- ---------- ---------- ----------
1                245.89     1.12       0          0          0         
2                165.92     0.89       0          0          0         
3                115.96     0.93       0          0          0         
4                113.43     0.99       0          0          0         
5                207.47     1.20       0          0          0         
6                315.93     1.04       0          0          0         
7                311.85     1.14       0          0          0         
8                127.41     0.90       0          0          0         
9                451.79     1.02       0          0          0         
10               449.69     1.22       0          0          0         
11               447.55     0.76       0          0          0         
12               439.30     0.94       0          0          0         
13               306.70     0.91       0          0          0         
15               104.53     1.03       0          0          0         
16               110.88     1.03       0          0          0         
17               205.42     0.99       0          0          0         
18               295.86     0.89       0          0          0         
19               397.26     0.78       0          0          0         
20               432.72     0.94       0          0          0         
21               428.95     1.21       0          0          0         
22               426.03     0.95       0          0          0         
23               421.94     1.18       0          0          0         
24               419.55     0.77       0          0          0         
25               414.70     0.90       0          0          0         
26               409.97     0.77       0          0          0         
27               401.66     0.76       0          0          0         
28               395.96     1.18       0          0          0         
29               393.55     0.76       0          0          0         
30               303.88     0.78       0          0          0         
31               298.63     0.90       0          0          0         
32               294.70     1.22       0          0          0         
33               117.66     0.83       0          0          0         
34               297.90     1.24       0          0          0         
35               296.42     0.85       0          0          0         
36               384.29     1.21       0          0          0         
37               381.22     0.86       0          0          0         
38               191.98     0.85       0          0          0         
39               186.64     0.78       0          0          0         
40               181.71     0.81       0          0          0         
41               123.64     0.98       0          0          0         
42               301.68     0.88       0          0          0         
43               295.37     1.24       0          0          0         
44               374.66     0.89       0          0          0         
45               371.43     1.12       0          0          0         
46               364.36     1.07       0          0          0         
47               233.00     0.82       0          0          0         
48               224.07     0.92       0          0          0         
49               321.13     0.92       0          0          0         
50               316.39     1.19       0          0          0         
51               298.99     1.24       0          0          0         
52               261.15     0.75       0          0          0         
53               259.04     1.19       0          0          0         
54               251.23     0.81       0          0          0         
55               362.46     1.00       0          0          0         
56               243.13     0.94       0          0          0         
57               240.11     0.81       0          0          0         
58               235.37     1.16       0          0          0         
59               176.96     0.92       0          0          0         
60               174.63     0.90       0          0          0         
61               240.48     1.07       0          0          0         
62               236.94     0.92       0          0          0         
63               121.99     1.22       0          0          0         
64               125.86     1.09       0          0          0         
65               215.55     0.75       0          0          0         
66               294.37     1.09       0          0          0         
67               340.83     0.98       0          0          0         
68               356.22     0.84       0          0          0         
69               354.29     0.81       0          0          0         
70               348.81     1.22       0          0          0         
71               347.74     0.88       0          0          0         
72               283.88     1.23       0          0          0         
73               296.14     1.23       0          0          0         
74               293.48     1.16       0          0          0         
75               343.76     1.17       0          0          0         
76               340.27     0.79       0          0          0         
77               262.94     1.09       0          0          0         
78               338.56     0.93       0          0          0         
79               333.03     0.96       0          0          0         
80               293.27     1.00       0          0          0         
81               233.10     1.04       0          0          0         
82               230.19     1.11       0          0          0         
83               293.50     0.83       0          0          0         
84               290.57     1.18       0          0          0         
85               283.20     0.88       0          0          0         
86               279.69     0.80       0          0          0         
87               133.17     0.87       0          0          0         
88               139.80     0.82       0          0          0         
89               262.77     1.16       0          0          0         
90               337.35     0.91       0          0          0         
91               335.87     1.15       0          0          0         
92               328.25     1.19       0          0          0         
93               323.80     1.05       0          0          0         
94               320.51     1.20       0          0          0         
95               314.79     0.78       0          0          0         
96               309.67     0.88       0          0          0         
97               160.54     0.95       0          0          0         
98               307.37     0.87       0          0          0         
99               301.90     0.90       0          0          0         
100              299.89     1.16       0          0          0         
101              294.54     0.83       0          0          0         
102              155.32     0.79       0          0          0         
103              172.77     1.10       0          0          0         
104              170.75     0.77       0          0          0         
105              165.08     1.20       0          0          0         
106              163.64     0.93       0          0          0         
107              260.50     1.24       0          0          0         
108              257.27     1.00       0          0          0         
109              288.85     0.75       0          0          0         
110              287.29     1.12       0          0          0         
111              281.54     1.07       0          0          0         
112              279.49     0.96       0          0          0         
113              276.87     1.24       0          0          0         
114              160.71     0.97       0          0          0         
115              158.04     0.82       0          0          0         
116              154.69     0.78       0          0          0         
117              151.59     0.77       0          0          0         
118              273.25     1.05       0          0          0         
119              203.13     0.86       0          0          0         
120              202.85     1.18       0          0          0         
121              197.64     0.93       0          0          0         
122              270.28     0.80       0          0          0         
123              260.43     0.79       0          0          0         
124              253.06     1.09       0          0          0         
125              250.01     1.07       0          0          0         
126              245.05     0.92       0          0          0         
127              243.30     0.93       0          0          0         
128              236.75     0.94       0          0          0         
129              230.15     1.03       0          0          0         
130              226.27     1.21       0          0          0         
131              180.33     1.08       0          0          0         
132              146.84     1.18       0          0          0         
133              149.27     0.97       0          0          0         
134              153.52     0.85       0          0          0         
135              156.95     1.21       0          0          0         
136              222.56     1.12       0          0          0         
137              218.88     1.10       0          0          0         
138              212.88     1.18       0          0          0         
139              210.38     1.02       0          0          0         
140              205.63     1.19       0          0          0         
141              200.74     0.82       0          0          0         
142              198.21     1.22       0          0          0         
143              159.66     1.01       0          0          0         
144              163.89     0.79       0          0          0         
145              168.76     1.07       0          0          0         
146              170.63     1.18       0          0          0         
147              194.21     1.10       0          0          0         
148              191.31     0.96       0          0          0         
149              184.15     0.85       0          0          0         
150              176.81     0.79       0          0          0         

[OUTFALLS]
;;Name           Elevation  Type       Stage Data       Gated    Route To        
;;-------------- ---------- ---------- ---------------- -------- ----------------
14               100.00     FREE                        NO                       

[CONDUITS]
;;Name           From Node        To Node          Length     Roughness  InOffset   OutOffset  InitFlow   MaxFlow   
;;-------------- ---------------- ---------------- ---------- ---------- ---------- ---------- ---------- ----------
1                1                61               56.18      0.01       0          0          0          0         
2                2                97               75.59      0.01       0          0          0          0         
3                3                4                26.47      0.01       0          0          0          0         
4                4                16               33.38      0.01       0          0          0          0         
5                5                17               32.15      0.01       0          0          0          0         
6                6                7                43.79      0.01       0          0          0          0         
7                7                13               64.34      0.01       0          0          0          0         
8                8                64               21.45      0.01       0          0          0          0         
9                9                10               37.09      0.01       0          0          0          0         
10               10               11               26.65      0.01       0          0          0          0         
11               11               12               88.13      0.01       0          0          0          0         
12               12               20               71.16      0.01       0          0          0          0         
13               13               30               35.06      0.01       0          0          0          0         
14               15               14               59.38      0.01       0          0          0          0         
15               16               15               93.89      0.01       0          0          0          0         
16               33               16               78.36      0.01       0          0          0          0         
17               17               119              28.13      0.01       0          0          0          0         
18               18               74               28.22      0.01       0          0          0          0         
19               19               29               47.48      0.01       0          0          0          0         
20               20               21               74.60      0.01       0          0          0          0         
21               21               22               49.33      0.01       0          0          0          0         
22               22               23               45.20      0.01       0          0          0          0         
23               23               24               41.87      0.01       0          0          0          0         
24               24               25               92.82      0.01       0          0          0          0         
25               25               26               60.03      0.01       0          0          0          0         
26               26               27               89.48      0.01       0          0          0          0         
27               27               28               76.79      0.01       0          0          0          0         
28               28               29               37.20      0.01       0          0          0          0         
29               29               36               97.89      0.01       0          0          0          0         
30               30               31               77.78      0.01       0          0          0          0         
31               31               32               48.98      0.01       0          0          0          0         
32               32               80               20.80      0.01       0          0          0          0         
33               63               33               46.41      0.01       0          0          0          0         
34               34               35               29.29      0.01       0          0          0          0         
35               35               66               32.87      0.01       0          0          0          0         
36               36               37               32.50      0.01       0          0          0          0         
37               37               44               70.65      0.01       0          0          0          0         
38               38               39               97.47      0.01       0          0          0          0         
39               39               40               62.63      0.01       0          0          0          0         
40               40               59               74.24      0.01       0          0          0          0         
41               41               63               31.55      0.01       0          0          0          0         
42               42               43               99.95      0.01       0          0          0          0         
43               43               83               27.59      0.01       0          0          0          0         
44               44               45               43.32      0.01       0          0          0          0         
45               45               46               83.75      0.01       0          0          0          0         
46               46               55               22.01      0.01       0          0          0          0         
47               47               48               94.48      0.01       0          0          0          0         
48               48               137              70.48      0.01       0          0          0          0         
49               49               50               69.97      0.01       0          0          0          0         
50               50               95               25.89      0.01       0          0          0          0         
51               51               83               74.52      0.01       0          0          0          0         
52               52               53               28.15      0.01       0          0          0          0         
53               53               54               79.53      0.01       0          0          0          0         
54               54               126              66.90      0.01       0          0          0          0         
55               55               68               96.35      0.01       0          0          0          0         
56               56               57               30.44      0.01       0          0          0          0         
57               57               58               61.35      0.01       0          0          0          0         
58               58               81               27.41      0.01       0          0          0          0         
59               59               60               29.22      0.01       0          0          0          0         
60               60               103              20.53      0.01       0          0          0          0         
61               61               62               35.77      0.01       0          0          0          0         
62               62               81               44.81      0.01       0          0          0          0         
63               64               63               40.69      0.01       0          0          0          0         
64               87               64               82.90      0.01       0          0          0          0         
65               65               138              48.89      0.01       0          0          0          0         
66               66               84               48.03      0.01       0          0          0          0         
67               67               90               60.66      0.01       0          0          0          0         
68               68               69               23.15      0.01       0          0          0          0         
69               69               70               55.38      0.01       0          0          0          0         
70               70               71               20.92      0.01       0          0          0          0         
71               71               75               43.76      0.01       0          0          0          0         
72               72               112              67.13      0.01       0          0          0          0         
73               73               74               38.84      0.01       0          0          0          0         
74               74               110              67.74      0.01       0          0          0          0         
75               75               76               62.09      0.01       0          0          0          0         
76               76               90               44.41      0.01       0          0          0          0         
77               77               123              28.83      0.01       0          0          0          0         
78               78               79               68.61      0.01       0          0          0          0         
79               79               92               56.60      0.01       0          0          0          0         
80               80               109              47.01      0.01       0          0          0          0         
81               81               82               54.73      0.01       0          0          0          0         
82               82               130              64.06      0.01       0          0          0          0         
83               83               84               32.15      0.01       0          0          0          0         
84               84               85               92.19      0.01       0          0          0          0         
85               85               86               36.10      0.01       0          0          0          0         
86               86               118              74.29      0.01       0          0          0          0         
87               88               87               97.85      0.01       0          0          0          0         
88               132              88               71.05      0.01       0          0          0          0         
89               89               107              27.87      0.01       0          0          0          0         
90               90               91               22.09      0.01       0          0          0          0         
91               91               92               86.84      0.01       0          0          0          0         
92               92               93               69.73      0.01       0          0          0          0         
93               93               94               33.10      0.01       0          0          0          0         
94               94               95               64.54      0.01       0          0          0          0         
95               95               96               69.26      0.01       0          0          0          0         
96               96               98               31.27      0.01       0          0          0          0         
97               97               115              32.85      0.01       0          0          0          0         
98               98               99               57.34      0.01       0          0          0          0         
99               99               100              35.60      0.01       0          0          0          0         
100              100              101              59.71      0.01       0          0          0          0         
101              101              109              82.80      0.01       0          0          0          0         
102              102              134              24.00      0.01       0          0          0          0         
103              103              104              20.88      0.01       0          0          0          0         
104              104              105              64.39      0.01       0          0          0          0         
105              105              106              20.84      0.01       0          0          0          0         
106              106              143              45.58      0.01       0          0          0          0         
107              107              108              50.94      0.01       0          0          0          0         
108              108              124              51.68      0.01       0          0          0          0         
109              109              110              20.12      0.01       0          0          0          0         
110              110              111              58.95      0.01       0          0          0          0         
111              111              112              25.60      0.01       0          0          0          0         
112              112              113              33.93      0.01       0          0          0          0         
113              113              118              36.38      0.01       0          0          0          0         
114              114              116              63.83      0.01       0          0          0          0         
115              115              116              48.66      0.01       0          0          0          0         
116              116              117              58.05      0.01       0          0          0          0         
117              117              132              53.00      0.01       0          0          0          0         
118              118              122              41.33      0.01       0          0          0          0         
119              119              141              46.19      0.01       0          0          0          0         
120              120              121              81.98      0.01       0          0          0          0         
121              121              147              35.60      0.01       0          0          0          0         
122              122              123              98.84      0.01       0          0          0          0         
123              123              124              90.68      0.01       0          0          0          0         
124              124              125              36.88      0.01       0          0          0          0         
125              125              126              82.56      0.01       0          0          0          0         
126              126              127              34.45      0.01       0          0          0          0         
127              127              128              95.39      0.01       0          0          0          0         
128              128              129              71.95      0.01       0          0          0          0         
129              129              130              40.88      0.01       0          0          0          0         
130              130              136              73.53      0.01       0          0          0          0         
131              131              150              38.02      0.01       0          0          0          0         
132              133              132              37.40      0.01       0          0          0          0         
133              134              133              73.32      0.01       0          0          0          0         
134              135              134              46.48      0.01       0          0          0          0         
135              143              135              34.66      0.01       0          0          0          0         
136              136              137              68.03      0.01       0          0          0          0         
137              137              138              77.90      0.01       0          0          0          0         
138              138              139              25.56      0.01       0          0          0          0         
139              139              140              52.36      0.01       0          0          0          0         
140              140              141              50.52      0.01       0          0          0          0         
141              141              142              45.10      0.01       0          0          0          0         
142              142              147              40.21      0.01       0          0          0          0         
143              144              143              48.04      0.01       0          0          0          0         
144              145              144              58.63      0.01       0          0          0          0         
145              146              145              31.87      0.01       0          0          0          0         
146              150              146              85.98      0.01       0          0          0          0         
147              147              148              44.38      0.01       0          0          0          0         
148              148              149              95.61      0.01       0          0          0          0         
149              149              150              81.74      0.01       0          0          0          0         

[XSECTIONS]