[TITLE]

[OPTIONS]
 FLOW_UNITS            CMS
 INFILTRATION          GREEN_AMPT
 FLOW_ROUTING          DYNWAVE
 START_DATE            04/14/2010
 START_TIME            00:00:00
 REPORT_START_DATE     04/14/2010
 REPORT_START_TIME     00:00:00
 END_DATE              04/15/2010
 END_TIME              00:00:00
 SWEEP_START           01/01
 SWEEP_END             12/31
 DRY_DAYS              0
 REPORT_STEP           00:01:00
 WET_STEP              00:01:00
 DRY_STEP              00:01:00
 ROUTING_STEP          00:01:00 
 ALLOW_PONDING         NO
 INERTIAL_DAMPING      PARTIAL
 VARIABLE_STEP         0.75
 LENGTHENING_STEP      0
 MIN_SURFAREA          0
 NORMAL_FLOW_LIMITED   BOTH
 SKIP_STEADY_STATE     NO
 IGNORE_RAINFALL       NO

[JUNCTIONS]
;;                 Invert     Max.       Init.      Surcharge  Ponded    
;;Name             Elev.      Depth      Depth      Depth      Area      
;;------------------------------------------------------------------------
  320              13.70      1.07       0          0          0         
  319              13.00      4.72       0          0          0         
  318              12.4       3.11       0          0          0         
  317              12.00      3          0          0          0         
  316              11.3       3.35       0          0          0         
  315              10.79      2.41       0          0          0         
  314              9.69       2.17       0          0          0         
  313              9.05       2.35       0          0          0         
  312              8.50       2.55       0          0          0         
  311              7.78       3.4        0          0          0         
  310              7.41       3.1        0          0          0         
  309              6.97       2.95       0          0          0         
  307              6.40       2.5        0          0          0         
  306              6.01       2.47       0          0          0         
  305              5.81       2.31       0          0          0         
  3040             7.37       2.15       0          0          0         
  3086             11.2       2.1        0          0          0         
  3085             10.6       2.39       0          0          0         
  3084             10.0       2.22       0          0          0         
  3083             9.29       2.32       0          0          0         
  3082             8.55       2.23       0          0          0         
  3081             7.09       2.75       0          0          0         
  308              6.8        2.64       0          0          0         
  3046             10.4       2.18       0          0          0         
  3045             9.4        2.44       0          0          0         
  3044             8.6        2.39       0          0          0         
  3043             7.7        2.23       0          0          0         
  3042             7.26       1.81       0          0          0         
  3041             6.25       2.12       0          0          0         
  304              5.47       2.9        0          0          0         
  303              5.22       2.45       0          0          0         
  302              4.97       1.15       0          0          0         
  301              4.79       1.17       0          0          0         
  300              4.51       0.85       0          0          0         
  300A             4.31       1.95       0          0          0         
  3A               4.07       1.6        0          0          0         
  38               30.97      2.3        0          0          0         
  37               28.98      2.32       0          0          0         
  36               28.69      3.55       0          0          0         
  35               28.5       6.31       0          0          0         
  34               28.11      7.25       0          0          0         
  33               27.85      6          0          0          0         
  32               27.56      2.93       0          0          0         
  31               26.25      1.02       0          0          0         
  30               24.97      1          0          0          0         
  29               24.56      2.27       0          0          0         
  28               24.46      2.52       0          0          0         
  270              25.36      2.33       0          0          0         
  27               24.31      3.17       0          0          0         
  26               23.27      2.87       0          0          0         
  25               22.2       2.3        0          0          0         
  24               21.07      2.03       0          0          0         
  22               18.39      2.37       0          0          0         
  21               17.29      1.41       0          0          0         
  20               17.14      2          0          0          0         
  19               16.78      3.09       0          0          0         
  18               16.42      4.14       0          0          0         
  17               16.25      4.6        0          0          0         
  16               15.91      4.45       0          0          0         
  15               15.86      3.48       0          0          0         
  14B              15.7       3.16       0          0          0         
  14A              15.44      3.2        0          0          0         
  2306             24.8       2.04       0          0          0         
  2305             24.35      2.28       0          0          0         
  2304             23.3       2.4        0          0          0         
  23040            23.68      1.74       0          0          0         
  2303             22.56      2.4        0          0          0         
  2302             21.8       2.4        0          0          0         
  2301             21.33      2.08       0          0          0         
  2300             20.83      1.97       0          0          0         
  23               19.39      3.18       0          0          0         
  B1012            3.26       3.11       0          0          0         
  B1011            3.07       4.95       0          0          0         
  B1010            2.8        5          0          0          0         
  B1009            2.48       4.98       0          0          0         
  B1008            2.13       4.98       0          0          0         
  B1007            1.91       5.05       0          0          0         
  B1006            1.76       5.08       0          0          0         
  B1005            1.4        4.93       0          0          0         
  B1004            1.12       4.93       0          0          0         
  B1003            0.82       2.45       0          0          0         
  B1002            0.53       5.76       0          0          0         
  B1001            0.45       4.3        0          0          0         
  B100A            -0.11      4.13       0          0          0         
  B1000            -0.59      3.97       0          0          0
  B100B            -8.09      4.2        0          0          0
  120              -40.59     4.52       0          0          0         
  1506             23.37      0.94       0          0          0         
  1505             22.95      1.4        0          0          0         
  1504             21.88      1.64       0          0          0         
  1504B            22.05      0.79       0          0          0         
  1503             20.92      1.7        0          0          0         
  1502             20.65      1.55       0          0          0         
  1501             20.19      1.04       0          0          0         
  1500             20.03      1.19       0          0          0         
  149              19.56      1.57       0          0          0         
  148              18.92      1.53       0          0          0         
  14               15.33      4.15       0          0          0         
  13               14.69      3.17       0          0          0         
  12               14.13      1.31       0          0          0         
  11               11.94      1.51       0          0          0         
  10               9.88       1.87       0          0          0         
  9                8.16       1.75       0          0          0         
  8A               7.14       1.55       0          0          0         
  8                6.16       1.57       0          0          0         
  7                5.5        1.6        0          0          0         
  6                5.23       1.38       0          0          0         
  5                4.7        1.52       0          0          0         
  4                4.12       1.66       0          0          0         
  3                3.99       4.58       0          0          0         
  2                3.82       4.7        0          0          0         
  110              18.5       2.5        0          0          0         
  109              18.00      2.51       0          0          0         
  108              17.6       3.03       0          0          0         
  107              17.00      2.65       0          0          0         
  106              16.6       2.59       0          0          0         
  105              15.59      2.75       0          0          0         
  104              14.67      2.75       0          0          0         
  103              13.89      2.65       0          0          0         
  102              12.75      2.66       0          0          0         
  101A             12.49      2.38       0          0          0         
  101              12.38      2.69       0          0          0         
  100              12.03      2.82       0          0          0         
  1                10.15      4.68       0          0          0         
  1A               3.44       4.84       0          0          0         
  1014             19.39      2.5        0          0          0         
  1013             17.73      2.44       0          0          0         
  1012             16.4       2.87       0          0          0         
  1011             15.07      2.66       0          0          0         
  1010             13.7       2.84       0          0          0         
  168              29.13      2.28       0          0          0         
  167              28.85      2.34       0          0          0         
  166              28.54      2.43       0          0          0         
  165              28.25      2.39       0          0          0         
  1640             28.33      1.63       0          0          0         
  164              27.94      2.45       0          0          0         
  163              27.47      2.67       0          0          0         
  162              26.78      2.5        0          0          0         
  161              25.97      2.36       0          0          0         
  160              25.62      2.08       0          0          0         
  1591             26.15      2.43       0          0          0         
  1590             25.65      2.27       0          0          0         
  159              25.18      2.25       0          0          0         
  158              24.2       1.38       0          0          0         
  157              26.83      1.25       0          0          0         
  156              25.7       1.27       0          0          0         
  155              24.26      1.28       0          0          0         
  154              23.08      1.29       0          0          0         
  153              22.52      1.25       0          0          0         
  152              21.6       1.25       0          0          0         
  151              20.25      1.62       0          0          0         
  150              19.76      1.87       0          0          0         
  1594             27.32      2.5        0          0          0         
  1592             26.64      2.58       0          0          0         

[OUTFALLS]
;;                 Invert     Outfall    Stage/Table      Tide
;;Name             Elev.      Type       Time Series      Gate
;;------------------------------------------------------------
  O_I              -40.59     FREE                        NO

[CONDUITS]
;;                 Inlet            Outlet                      Manning    Inlet      Outlet     Init.      Maximum
;;Name             Node             Node             Length     N          Height     Height     Flow       Flow
;;------------------------------------------------------------------------------------------------------------------------
  1                320              319              46.563316  0.025      0          0          0          0         
  2                319              318              50.05702   0.025      0          0          0          0         
  3                318              317              24.90932   0.025      0          0          0          0         
  4                317              316              41.69437   0.025      0          0          0          0         
  5                316              315              41.14162   0.025      0          0          0          0         
  6                315              314              49.59526   0.025      0          0          0          0         
  7                314              313              50.14519   0.025      0          0          0          0         
  8                313              312              40.0241    0.025      0          0          0          0         
  9                312              311              29.46133   0.025      0          0          0          0         
  10               311              310              48.02496   0.025      0          0          0          0         
  11               310              309              50.6814    0.025      0          0          0          0         
  12               309              308              50.91801   0.025      0          0          0          0         
  13               308              307              51.95457   0.025      0          0          0          0         
  14               307              306              47.49433   0.025      0          0          0          0         
  15               306              305              36.92664   0.025      0          0          0          0         
  16               305              304              34.18301   0.025      0          0          0          0         
  17               3040             304              53.5207    0.025      0          0          0          0         
  18               3086             3085             38.47734   0.025      0          0          0          0         
  19               3085             3084             56.21217   0.025      0          0          0          0         
  20               3084             3083             53.03974   0.025      0          0          0          0         
  21               3083             3082             41.26493   0.025      0          0          0          0         
  22               3082             3081             47.1257    0.025      0          0          0          0         
  23               3081             308              25.56855   0.025      0          0          0          0         
  24               3046             3045             61.21009   0.025      0          0          0          0         
  25               3045             3044             47.85913   0.025      0          0          0          0         
  26               3044             3043             47.70551   0.025      0          0          0          0         
  27               3043             3042             42.7909    0.025      0          0          0          0         
  28               3042             3041             32.31765   0.025      0          0          0          0         
  29               3041             304              31.46511   0.025      0          0          0          0         
  30               304              303              45.14654   0.025      0          0          0          0         
  31               303              302              43.08411   0.025      0          0          0          0         
  32               302              301              31.3003    0.025      0          0          0          0         
  33               301              300              44.07164   0.025      0          0          0          0         
  34               300              300A             37.42116   0.025      0          0          0          0         
  35               300A             3A               34.61636   0.025      0          0          0          0         
  36               38               37               67.79608   0.025      0          0          0          0         
  37               37               36               35.28368   0.025      0          0          0          0         
  38               36               35               46.25873   0.025      0          0          0          0         
  39               35               34               66.54684   0.025      0          0          0          0         
  40               34               33               29.54406   0.025      0          0          0          0         
  41               33               32               49.76016   0.025      0          0          0          0         
  42               32               31               51.25968   0.025      0          0          0          0         
  43               31               30               49.1023    0.025      0          0          0          0         
  44               30               29               64.743     0.025      0          0          0          0         
  45               29               28               32.84191   0.025      0          0          0          0         
  46               28               27               30.92763   0.025      0          0          0          0         
  47               270              27               50.28249   0.025      0          0          0          0         
  48               27               26               61.53313   0.025      0          0          0          0         
  49               26               25               49.96539   0.025      0          0          0          0         
  50               25               24               42.88123   0.025      0          0          0          0         
  51               24               23               23.44156   0.025      0          0.98       0          0         
  52               23               22               55.41253   0.025      0          0          0          0         
  53               22               21               52.89291   0.025      0          0          0          0         
  54               21               20               36.62422   0.025      0          0          0          0         
  55               20               19               48.87589   0.025      0          0          0          0         
  56               19               18               51.99202   0.025      0          0          0          0         
  57               18               17               27.25151   0.025      0          0          0          0         
  58               17               16               51.24354   0.025      0          0          0          0         
  59               16               15               29.856     0.025      0          0          0          0         
  60               15               14B              29.89687   0.025      0          0          0          0         
  61               14B              14A              26.26049   0.025      0          0          0          0         
  62               14A              14               30.93337   0.025      0          0          0          0         
  63               2306             2305             33.74124   0.025      0          0.31       0          0         
  64               2305             2304             42.36661   0.025      0          0          0          0         
  65               2304             2303             24.95349   0.025      0          0          0          0         
  66               2303             2302             33.71516   0.025      0          0          0          0         
  67               2302             2301             36.92268   0.025      0          0          0          0         
  68               2301             2300             30.67534   0.025      0          0          0          0         
  69               2300             23               24.61341   0.025      0          0.88       0          0         
  70               23040            2304             37.01747   0.025      0          0          0          0         
  71               1A               B1012            18.27118   0.025      0          0          0          0         
  72               B1012            B1011            51.009     0.025      0          0          0          0         
  73               B1011            B1010            49.32574   0.025      0          0          0          0         
  74               B1010            B1009            49.73684   0.025      0          0          0          0         
  75               B1009            B1008            49.85467   0.025      0          0          0          0         
  76               B1008            B1007            51.37714   0.025      0          0          0          0         
  77               B1007            B1006            49.94226   0.025      0          0          0          0         
  78               B1006            B1005            59.36109   0.025      0          0          0          0         
  79               B1005            B1004            60.64406   0.025      0          0          0          0         
  80               B1004            B1003            60.45009   0.025      0          0          0          0         
  81               B1003            B1002            44.98277   0.025      0          0          0          0         
  82               B1002            B1001            46.84544   0.025      0          0          0          0         
  83               B1001            B100A            59.24865   0.025      0          0          0          0         
  84               B100A            B1000            41.31517   0.025      0          0          0          0         
  85               B1000            B100B            2644.806   0.025      0          0          0          0
  154              B100B            120              2644.806   0.025      0          0          0          0
  86               1506             1505             25.93824   0.025      0          0          0          0         
  87               1505             1504             56.39187   0.025      0          0          0          0         
  88               1504B            1504             24.84808   0.025      0          0          0          0         
  89               1504             1503             32.80724   0.025      0          0          0          0         
  90               1503             1502             32.22805   0.025      0          0          0          0         
  91               1502             1501             23.66346   0.025      0          0          0          0         
  92               1501             1500             31.55313   0.025      0          0          0          0         
  93               1500             150              31.68782   0.025      0          0          0          0         
  94               150              149              28.27944   0.025      0          0          0          0         
  95               149              148              24.59146   0.025      0          0          0          0         
  96               148              14               35.28354   0.025      0          0.04       0          0         
  97               14               13               56.02322   0.025      0          0          0          0         
  98               13               12               48.50992   0.025      0          0          0          0         
  99               12               11               50.47031   0.025      0          0          0          0         
  100              11               10               47.70245   0.025      0          0          0          0         
  101              10               9                38.91166   0.025      0          0          0          0         
  102              9                8A               23.23705   0.025      0          0          0          0         
  103              8A               8                21.5234    0.025      0          0          0          0         
  104              8                7                29.92597   0.025      0          0          0          0         
  105              7                6                53.54584   0.025      0          0          0          0         
  106              6                5                42.54913   0.025      0          0          0          0         
  107              5                4                44.5579    0.025      0          0          0          0         
  108              4                3A               8.473619   0.025      0          0          0          0         
  109              3A               3                32.5634    0.025      0          0          0          0         
  110              3                2                44.33136   0.025      0          0          0          0         
  111              2                1A               41.87921   0.025      0          0          0          0         
  112              110              109              31.3448    0.025      0          0          0          0         
  113              109              108              28.99137   0.025      0          0          0          0         
  114              108              107              51.796     0.025      0          0          0          0         
  115              107              106              42.55144   0.025      0          0          0          0         
  116              106              105              56.76959   0.025      0          0          0          0         
  117              105              104              47.45201   0.025      0          0          0          0         
  118              104              103              41.07636   0.025      0          0          0          0         
  119              103              102              53.66372   0.025      0          0          0          0         
  120              102              101A             27.88816   0.025      0          0          0          0         
  121              101A             101              11.23694   0.025      0          0          0          0         
  122              101              100              56.92467   0.025      0          0          0          0         
  123              100              1                69.61293   0.025      0          1.5        0          0         
  124              1                1A               21.41844   0.025      0          2.86       0          0         
  125              1014             1013             51.22282   0.025      0          0          0          0         
  126              1013             1012             39.83628   0.025      0          0          0          0         
  127              1012             1011             40.47813   0.025      0          0          0          0         
  128              1011             1010             42.36728   0.025      0          0          0          0         
  129              1010             101              42.12439   0.025      0          0          0          0         
  130              168              167              27.48518   0.025      0          0          0          0         
  131              167              166              29.94323   0.025      0          0          0          0         
  132              166              165              37.87198   0.025      0          0          0          0         
  133              165              164              32.57402   0.025      0          0          0          0         
  134              1640             164              51.5155    0.025      0          0          0          0         
  135              164              163              30.19263   0.025      0          0          0          0         
  136              163              162              44.33257   0.025      0          0          0          0         
  137              162              161              44.76315   0.025      0          0          0          0         
  138              161              160              30.04305   0.025      0          0          0          0         
  139              160              159              18.77663   0.025      0          0          0          0         
  141              1594             1592             52.22033   0.025      0          0          0          0         
  142              1592             1591             40.94426   0.025      0          0          0          0         
  143              1591             1590             39.79562   0.025      0          0          0          0         